3084981
  -OEChem-06042618333D

105106  0     1  0  0  0  0  0999 V2000
    5.5392    0.7400    0.2532 O   0  0  0  0  0  0  0  0  0  0  0  0
    3.9966   -0.2668   -1.2003 O   0  0  0  0  0  0  0  0  0  0  0  0
    6.4383    0.3574   -2.4486 O   0  0  0  0  0  0  0  0  0  0  0  0
    9.0641    0.0464    1.0115 O   0  0  0  0  0  0  0  0  0  0  0  0
    1.4095    1.7491    1.5845 O   0  0  0  0  0  0  0  0  0  0  0  0
   -0.9570    3.2543    1.6955 O   0  0  0  0  0  0  0  0  0  0  0  0
    1.9219    4.9159   -0.8934 O   0  0  0  0  0  0  0  0  0  0  0  0
    1.7294    4.5187    1.3428 O   0  0  0  0  0  0  0  0  0  0  0  0
   -3.6851    3.9426    0.5388 O   0  0  0  0  0  0  0  0  0  0  0  0
   -5.8576    4.4342   -1.3204 O   0  0  0  0  0  0  0  0  0  0  0  0
   -7.2585    0.8676    1.5682 O   0  0  0  0  0  0  0  0  0  0  0  0
   -4.3506   -3.2380   -0.2250 O   0  0  0  0  0  0  0  0  0  0  0  0
   -4.4139   -1.1270   -1.1578 O   0  0  0  0  0  0  0  0  0  0  0  0
    8.8094   -1.0377   -1.7008 N   0  0  0  0  0  0  0  0  0  0  0  0
    7.6942   -0.8762   -0.7646 C   0  0  2  0  0  0  0  0  0  0  0  0
    6.3620   -0.7203   -1.5107 C   0  0  1  0  0  0  0  0  0  0  0  0
    7.9476    0.3202    0.1683 C   0  0  1  0  0  0  0  0  0  0  0  0
    5.2362   -0.4260   -0.5153 C   0  0  1  0  0  0  0  0  0  0  0  0
    6.7164    0.5813    1.0510 C   0  0  1  0  0  0  0  0  0  0  0  0
    2.9316    0.0027   -0.2898 C   0  0  1  0  0  0  0  0  0  0  0  0
    2.3521    1.3955   -0.6047 C   0  0  0  0  0  0  0  0  0  0  0  0
    1.0912    1.7713    0.1965 C   0  0  2  0  0  0  0  0  0  0  0  0
    0.5235    3.1385   -0.2409 C   0  0  1  0  0  0  0  0  0  0  0  0
    6.8801    1.8510    1.8809 C   0  0  0  0  0  0  0  0  0  0  0  0
   -0.8994    3.4465    0.2836 C   0  0  1  0  0  0  0  0  0  0  0  0
   -1.9467    2.5485   -0.3876 C   0  0  0  0  0  0  0  0  0  0  0  0
    1.9079   -1.0873   -0.4470 C   0  0  0  0  0  0  0  0  0  0  0  0
    1.4454    4.2480    0.1856 C   0  0  0  0  0  0  0  0  0  0  0  0
   -3.3586    3.1183   -0.3123 C   0  0  0  0  0  0  0  0  0  0  0  0
   -4.3271    2.5839   -1.3620 C   0  0  0  0  0  0  0  0  0  0  0  0
   -5.7865    3.0111   -1.2124 C   0  0  1  0  0  0  0  0  0  0  0  0
    1.5510   -2.0087    0.4612 C   0  0  0  0  0  0  0  0  0  0  0  0
   -6.4874    2.5657    0.0757 C   0  0  0  0  0  0  0  0  0  0  0  0
   -6.4905    1.0592    0.3757 C   0  0  2  0  0  0  0  0  0  0  0  0
   -7.0828    0.2131   -0.7612 C   0  0  0  0  0  0  0  0  0  0  0  0
    2.1842   -2.2385    1.7420 C   0  0  0  0  0  0  0  0  0  0  0  0
   -7.2872   -1.2321   -0.3953 C   0  0  0  0  0  0  0  0  0  0  0  0
   -2.9065   -3.2813   -0.2521 C   0  0  2  0  0  0  0  0  0  0  0  0
    1.6477   -2.8938    2.7836 C   0  0  0  0  0  0  0  0  0  0  0  0
   -2.4550   -3.7887   -1.6171 C   0  0  0  0  0  0  0  0  0  0  0  0
   -0.9831   -3.4702   -1.8694 C   0  0  0  0  0  0  0  0  0  0  0  0
   -2.4388   -4.2267    0.8639 C   0  0  0  0  0  0  0  0  0  0  0  0
   -6.3979   -2.2339   -0.3606 C   0  0  0  0  0  0  0  0  0  0  0  0
   -0.5259   -4.0093   -3.2247 C   0  0  0  0  0  0  0  0  0  0  0  0
    0.2930   -3.3839    2.8943 C   0  0  0  0  0  0  0  0  0  0  0  0
   -4.9544   -2.0963   -0.6545 C   0  0  0  0  0  0  0  0  0  0  0  0
   -2.8614   -3.7266    2.2196 C   0  0  0  0  0  0  0  0  0  0  0  0
    0.9476   -3.7256   -3.4688 C   0  0  0  0  0  0  0  0  0  0  0  0
   -0.7737   -2.5705    2.9264 C   0  0  0  0  0  0  0  0  0  0  0  0
   -2.1347   -3.0158    3.0942 C   0  0  0  0  0  0  0  0  0  0  0  0
    7.6493   -1.7901   -0.1571 H   0  0  0  0  0  0  0  0  0  0  0  0
    6.1279   -1.6212   -2.0889 H   0  0  0  0  0  0  0  0  0  0  0  0
    8.1817    1.2148   -0.4219 H   0  0  0  0  0  0  0  0  0  0  0  0
    5.1346   -1.2833    0.1646 H   0  0  0  0  0  0  0  0  0  0  0  0
    6.5617   -0.2520    1.7493 H   0  0  0  0  0  0  0  0  0  0  0  0
    3.2902    0.0263    0.7455 H   0  0  0  0  0  0  0  0  0  0  0  0
    2.1369    1.4590   -1.6799 H   0  0  0  0  0  0  0  0  0  0  0  0
    3.1458    2.1308   -0.4179 H   0  0  0  0  0  0  0  0  0  0  0  0
    0.3188    1.0140    0.0260 H   0  0  0  0  0  0  0  0  0  0  0  0
    0.4712    3.1514   -1.3387 H   0  0  0  0  0  0  0  0  0  0  0  0
    7.7386    1.7860    2.5558 H   0  0  0  0  0  0  0  0  0  0  0  0
    5.9809    2.0310    2.4803 H   0  0  0  0  0  0  0  0  0  0  0  0
    7.0056    2.7267    1.2346 H   0  0  0  0  0  0  0  0  0  0  0  0
    8.6598   -1.8694   -2.2704 H   0  0  0  0  0  0  0  0  0  0  0  0
    9.6718   -1.1937   -1.1805 H   0  0  0  0  0  0  0  0  0  0  0  0
   -1.1300    4.5019    0.0903 H   0  0  0  0  0  0  0  0  0  0  0  0
    6.4836    1.1902   -1.9494 H   0  0  0  0  0  0  0  0  0  0  0  0
    8.8588   -0.7475    1.5340 H   0  0  0  0  0  0  0  0  0  0  0  0
   -1.7077    2.4364   -1.4513 H   0  0  0  0  0  0  0  0  0  0  0  0
   -1.9783    1.5569    0.0772 H   0  0  0  0  0  0  0  0  0  0  0  0
    1.3528   -1.0770   -1.3838 H   0  0  0  0  0  0  0  0  0  0  0  0
    1.5225    0.8215    1.8512 H   0  0  0  0  0  0  0  0  0  0  0  0
   -3.9542    2.9489   -2.3273 H   0  0  0  0  0  0  0  0  0  0  0  0
   -4.2529    1.4933   -1.3633 H   0  0  0  0  0  0  0  0  0  0  0  0
   -6.3445    2.6195   -2.0700 H   0  0  0  0  0  0  0  0  0  0  0  0
   -1.8570    3.4786    1.9871 H   0  0  0  0  0  0  0  0  0  0  0  0
    0.7246   -2.6640    0.2170 H   0  0  0  0  0  0  0  0  0  0  0  0
   -6.0683    3.0995    0.9385 H   0  0  0  0  0  0  0  0  0  0  0  0
   -7.5261    2.9251    0.0437 H   0  0  0  0  0  0  0  0  0  0  0  0
   -5.4715    0.7228    0.5969 H   0  0  0  0  0  0  0  0  0  0  0  0
    2.5257    5.6448   -0.6357 H   0  0  0  0  0  0  0  0  0  0  0  0
   -6.4719    0.2863   -1.6668 H   0  0  0  0  0  0  0  0  0  0  0  0
   -8.0684    0.6151   -1.0313 H   0  0  0  0  0  0  0  0  0  0  0  0
    3.2108   -1.8967    1.8487 H   0  0  0  0  0  0  0  0  0  0  0  0
   -5.4296    4.8174   -0.5361 H   0  0  0  0  0  0  0  0  0  0  0  0
   -6.8246    1.3677    2.2805 H   0  0  0  0  0  0  0  0  0  0  0  0
   -8.3110   -1.4869   -0.1220 H   0  0  0  0  0  0  0  0  0  0  0  0
   -2.5106   -2.2742   -0.0640 H   0  0  0  0  0  0  0  0  0  0  0  0
   -3.0593   -3.3231   -2.4058 H   0  0  0  0  0  0  0  0  0  0  0  0
   -2.6402   -4.8669   -1.7032 H   0  0  0  0  0  0  0  0  0  0  0  0
    2.2710   -3.0775    3.6559 H   0  0  0  0  0  0  0  0  0  0  0  0
   -0.3689   -3.9419   -1.0983 H   0  0  0  0  0  0  0  0  0  0  0  0
   -0.8209   -2.3876   -1.8242 H   0  0  0  0  0  0  0  0  0  0  0  0
   -1.3559   -4.3698    0.8271 H   0  0  0  0  0  0  0  0  0  0  0  0
   -2.8880   -5.2191    0.7294 H   0  0  0  0  0  0  0  0  0  0  0  0
   -6.7437   -3.2200   -0.0602 H   0  0  0  0  0  0  0  0  0  0  0  0
   -0.6947   -5.0915   -3.2717 H   0  0  0  0  0  0  0  0  0  0  0  0
   -1.1187   -3.5534   -4.0263 H   0  0  0  0  0  0  0  0  0  0  0  0
    0.1817   -4.4577    3.0164 H   0  0  0  0  0  0  0  0  0  0  0  0
   -3.8919   -3.9453    2.4961 H   0  0  0  0  0  0  0  0  0  0  0  0
    1.5703   -4.1839   -2.6937 H   0  0  0  0  0  0  0  0  0  0  0  0
    1.1433   -2.6488   -3.4754 H   0  0  0  0  0  0  0  0  0  0  0  0
    1.2563   -4.1318   -4.4370 H   0  0  0  0  0  0  0  0  0  0  0  0
   -0.6437   -1.4912    2.8899 H   0  0  0  0  0  0  0  0  0  0  0  0
   -2.6186   -2.6719    4.0056 H   0  0  0  0  0  0  0  0  0  0  0  0
  1 18  1  0  0  0  0
  1 19  1  0  0  0  0
  2 18  1  0  0  0  0
  2 20  1  0  0  0  0
  3 16  1  0  0  0  0
  3 67  1  0  0  0  0
  4 17  1  0  0  0  0
  4 68  1  0  0  0  0
  5 22  1  0  0  0  0
  5 72  1  0  0  0  0
  6 25  1  0  0  0  0
  6 76  1  0  0  0  0
  7 28  1  0  0  0  0
  7 81  1  0  0  0  0
  8 28  2  0  0  0  0
  9 29  2  0  0  0  0
 10 31  1  0  0  0  0
 10 85  1  0  0  0  0
 11 34  1  0  0  0  0
 11 86  1  0  0  0  0
 12 38  1  0  0  0  0
 12 46  1  0  0  0  0
 13 46  2  0  0  0  0
 14 15  1  0  0  0  0
 14 64  1  0  0  0  0
 14 65  1  0  0  0  0
 15 16  1  0  0  0  0
 15 17  1  0  0  0  0
 15 51  1  0  0  0  0
 16 18  1  0  0  0  0
 16 52  1  0  0  0  0
 17 19  1  0  0  0  0
 17 53  1  0  0  0  0
 18 54  1  0  0  0  0
 19 24  1  0  0  0  0
 19 55  1  0  0  0  0
 20 21  1  0  0  0  0
 20 27  1  0  0  0  0
 20 56  1  0  0  0  0
 21 22  1  0  0  0  0
 21 57  1  0  0  0  0
 21 58  1  0  0  0  0
 22 23  1  0  0  0  0
 22 59  1  0  0  0  0
 23 25  1  0  0  0  0
 23 28  1  0  0  0  0
 23 60  1  0  0  0  0
 24 61  1  0  0  0  0
 24 62  1  0  0  0  0
 24 63  1  0  0  0  0
 25 26  1  0  0  0  0
 25 66  1  0  0  0  0
 26 29  1  0  0  0  0
 26 69  1  0  0  0  0
 26 70  1  0  0  0  0
 27 32  2  3  0  0  0
 27 71  1  0  0  0  0
 29 30  1  0  0  0  0
 30 31  1  0  0  0  0
 30 73  1  0  0  0  0
 30 74  1  0  0  0  0
 31 33  1  0  0  0  0
 31 75  1  0  0  0  0
 32 36  1  0  0  0  0
 32 77  1  0  0  0  0
 33 34  1  0  0  0  0
 33 78  1  0  0  0  0
 33 79  1  0  0  0  0
 34 35  1  0  0  0  0
 34 80  1  0  0  0  0
 35 37  1  0  0  0  0
 35 82  1  0  0  0  0
 35 83  1  0  0  0  0
 36 39  2  3  0  0  0
 36 84  1  0  0  0  0
 37 43  2  3  0  0  0
 37 87  1  0  0  0  0
 38 40  1  0  0  0  0
 38 42  1  0  0  0  0
 38 88  1  0  0  0  0
 39 45  1  0  0  0  0
 39 91  1  0  0  0  0
 40 41  1  0  0  0  0
 40 89  1  0  0  0  0
 40 90  1  0  0  0  0
 41 44  1  0  0  0  0
 41 92  1  0  0  0  0
 41 93  1  0  0  0  0
 42 47  1  0  0  0  0
 42 94  1  0  0  0  0
 42 95  1  0  0  0  0
 43 46  1  0  0  0  0
 43 96  1  0  0  0  0
 44 48  1  0  0  0  0
 44 97  1  0  0  0  0
 44 98  1  0  0  0  0
 45 49  2  3  0  0  0
 45 99  1  0  0  0  0
 47 50  2  3  0  0  0
 47100  1  0  0  0  0
 48101  1  0  0  0  0
 48102  1  0  0  0  0
 48103  1  0  0  0  0
 49 50  1  0  0  0  0
 49104  1  0  0  0  0
 50105  1  0  0  0  0
M  END
> <PUBCHEM_COMPOUND_CID>
3084981

> <PUBCHEM_CONFORMER_RMSD>
1.2

> <PUBCHEM_CONFORMER_DIVERSEORDER>
1
2
5
7
4
8
3
9
6

> <PUBCHEM_MMFF94_PARTIAL_CHARGES>
62
1 -0.56
10 -0.68
100 0.15
104 0.15
105 0.15
11 -0.68
12 -0.43
13 -0.57
14 -0.99
15 0.27
16 0.28
17 0.28
18 0.56
19 0.28
2 -0.56
20 0.42
22 0.28
23 0.06
25 0.28
26 0.06
27 -0.29
28 0.66
29 0.45
3 -0.68
30 0.06
31 0.28
32 -0.15
34 0.28
35 0.14
36 -0.15
37 -0.29
38 0.28
39 -0.15
4 -0.68
42 0.14
43 -0.14
45 -0.15
46 0.71
47 -0.29
49 -0.15
5 -0.68
50 -0.15
6 -0.68
64 0.36
65 0.36
67 0.4
68 0.4
7 -0.65
71 0.15
72 0.4
76 0.4
77 0.15
8 -0.57
81 0.5
84 0.15
85 0.4
86 0.4
87 0.15
9 -0.57
91 0.15
96 0.15
99 0.15

> <PUBCHEM_EFFECTIVE_ROTOR_COUNT>
10

> <PUBCHEM_PHARMACOPHORE_FEATURES>
23
1 1 acceptor
1 10 acceptor
1 10 donor
1 11 acceptor
1 11 donor
1 13 acceptor
1 14 cation
1 14 donor
1 2 acceptor
1 3 acceptor
1 3 donor
1 4 acceptor
1 4 donor
1 48 hydrophobe
1 5 acceptor
1 5 donor
1 6 acceptor
1 6 donor
1 7 acceptor
1 8 acceptor
1 9 acceptor
3 7 8 28 anion
6 1 15 16 17 18 19 rings

> <PUBCHEM_HEAVY_ATOM_COUNT>
50

> <PUBCHEM_ATOM_DEF_STEREO_COUNT>
5

> <PUBCHEM_ATOM_UDEF_STEREO_COUNT>
0

> <PUBCHEM_BOND_DEF_STEREO_COUNT>
0

> <PUBCHEM_BOND_UDEF_STEREO_COUNT>
5

> <PUBCHEM_ISOTOPIC_ATOM_COUNT>
0

> <PUBCHEM_COMPONENT_COUNT>
1

> <PUBCHEM_CACTVS_TAUTO_COUNT>
3

> <PUBCHEM_CONFORMER_ID>
002F12B500000001

> <PUBCHEM_MMFF94_ENERGY>
102.7634

> <PUBCHEM_FEATURE_SELFOVERLAP>
116.867

> <PUBCHEM_SHAPE_FINGERPRINT>
11050421 43 18263352763777423160
13165053 182 17026590245607811636
13165054 342 17968371248190118271
14279260 333 18261382348471711050
15351339 4 18187352204528910595
15781502 589 18341891831793030350
15790856 291 18263372541099676215
15975801 100 17968087565742733213
19319366 153 17897718778114190682
21223535 225 18338510936785307747
508180 173 18339363075244407371

> <PUBCHEM_SHAPE_MULTIPOLES>
947.69
21.38
7.58
2.84
22.02
2.67
0.27
6
-4.19
-8.77
0.05
1.08
-4.16
1.86

> <PUBCHEM_SHAPE_SELFOVERLAP>
1902.318

> <PUBCHEM_SHAPE_VOLUME>
546.7

> <PUBCHEM_COORDINATE_TYPE>
2
5
10

$$$$
