176158
  -OEChem-06042618333D

 37 40  0     0  0  0  0  0  0999 V2000
   -2.4494   -0.4096   -2.4645 Cl  0  0  0  0  0  0  0  0  0  0  0  0
   -4.0740    3.9499    0.2299 Cl  0  0  0  0  0  0  0  0  0  0  0  0
    1.4787   -3.5100   -0.0168 O   0  0  0  0  0  0  0  0  0  0  0  0
   -2.9528   -2.7397    0.8373 O   0  0  0  0  0  0  0  0  0  0  0  0
    2.5193    0.6287   -1.7157 N   0  0  0  0  0  0  0  0  0  0  0  0
   -0.7891   -3.5099    0.4854 N   0  0  0  0  0  0  0  0  0  0  0  0
    1.1804   -0.5813   -0.4232 C   0  0  0  0  0  0  0  0  0  0  0  0
    2.0473    0.1724    0.4166 C   0  0  0  0  0  0  0  0  0  0  0  0
    0.1550   -1.4975   -0.0321 C   0  0  0  0  0  0  0  0  0  0  0  0
    2.8771    0.9231   -0.4192 C   0  0  0  0  0  0  0  0  0  0  0  0
    1.4948   -0.2794   -1.7282 C   0  0  0  0  0  0  0  0  0  0  0  0
   -1.1489   -1.2742    0.2170 C   0  0  0  0  0  0  0  0  0  0  0  0
    0.4059   -2.9515    0.1402 C   0  0  0  0  0  0  0  0  0  0  0  0
    2.2062    0.2886    1.8118 C   0  0  0  0  0  0  0  0  0  0  0  0
   -1.8735   -0.0020    0.1784 C   0  0  0  0  0  0  0  0  0  0  0  0
   -1.7789   -2.5750    0.5519 C   0  0  0  0  0  0  0  0  0  0  0  0
    3.8617    1.7873    0.0725 C   0  0  0  0  0  0  0  0  0  0  0  0
    3.1259    1.1896   -2.9036 C   0  0  0  0  0  0  0  0  0  0  0  0
    3.1870    1.1492    2.3180 C   0  0  0  0  0  0  0  0  0  0  0  0
    4.0009    1.8862    1.4598 C   0  0  0  0  0  0  0  0  0  0  0  0
   -2.4967    0.4787   -0.9816 C   0  0  0  0  0  0  0  0  0  0  0  0
   -1.9421    0.7578    1.3534 C   0  0  0  0  0  0  0  0  0  0  0  0
   -3.1758    1.6969   -0.9658 C   0  0  0  0  0  0  0  0  0  0  0  0
   -2.6212    1.9760    1.3690 C   0  0  0  0  0  0  0  0  0  0  0  0
   -3.2380    2.4456    0.2094 C   0  0  0  0  0  0  0  0  0  0  0  0
    1.0755   -0.6352   -2.6607 H   0  0  0  0  0  0  0  0  0  0  0  0
    1.5798   -0.2784    2.4947 H   0  0  0  0  0  0  0  0  0  0  0  0
    4.4985    2.3639   -0.5901 H   0  0  0  0  0  0  0  0  0  0  0  0
   -0.9251   -4.4977    0.6674 H   0  0  0  0  0  0  0  0  0  0  0  0
    4.1871    0.9279   -2.9053 H   0  0  0  0  0  0  0  0  0  0  0  0
    2.6420    0.7780   -3.7930 H   0  0  0  0  0  0  0  0  0  0  0  0
    2.9935    2.2742   -2.8791 H   0  0  0  0  0  0  0  0  0  0  0  0
    3.3139    1.2430    3.3933 H   0  0  0  0  0  0  0  0  0  0  0  0
    4.7564    2.5488    1.8746 H   0  0  0  0  0  0  0  0  0  0  0  0
   -1.4677    0.4092    2.2682 H   0  0  0  0  0  0  0  0  0  0  0  0
   -3.6575    2.0657   -1.8690 H   0  0  0  0  0  0  0  0  0  0  0  0
   -2.6611    2.5490    2.2918 H   0  0  0  0  0  0  0  0  0  0  0  0
  1 21  1  0  0  0  0
  2 25  1  0  0  0  0
  3 13  2  0  0  0  0
  4 16  2  0  0  0  0
  5 10  1  0  0  0  0
  5 11  1  0  0  0  0
  5 18  1  0  0  0  0
  6 13  1  0  0  0  0
  6 16  1  0  0  0  0
  6 29  1  0  0  0  0
  7  8  1  0  0  0  0
  7  9  1  0  0  0  0
  7 11  2  0  0  0  0
  8 10  1  0  0  0  0
  8 14  2  0  0  0  0
  9 12  2  0  0  0  0
  9 13  1  0  0  0  0
 10 17  2  0  0  0  0
 11 26  1  0  0  0  0
 12 15  1  0  0  0  0
 12 16  1  0  0  0  0
 14 19  1  0  0  0  0
 14 27  1  0  0  0  0
 15 21  2  0  0  0  0
 15 22  1  0  0  0  0
 17 20  1  0  0  0  0
 17 28  1  0  0  0  0
 18 30  1  0  0  0  0
 18 31  1  0  0  0  0
 18 32  1  0  0  0  0
 19 20  2  0  0  0  0
 19 33  1  0  0  0  0
 20 34  1  0  0  0  0
 21 23  1  0  0  0  0
 22 24  2  0  0  0  0
 22 35  1  0  0  0  0
 23 25  2  0  0  0  0
 23 36  1  0  0  0  0
 24 25  1  0  0  0  0
 24 37  1  0  0  0  0
M  END
> <PUBCHEM_COMPOUND_CID>
176158

> <PUBCHEM_CONFORMER_RMSD>
0.6

> <PUBCHEM_CONFORMER_DIVERSEORDER>
2
5
8
3
6
7
4
1

> <PUBCHEM_MMFF94_PARTIAL_CHARGES>
33
1 -0.18
10 -0.15
11 -0.3
12 -0.01
13 0.62
14 -0.15
15 0.03
16 0.62
17 -0.15
18 0.26
19 -0.15
2 -0.18
20 -0.15
21 0.18
22 -0.15
23 -0.15
24 -0.15
25 0.18
26 0.15
27 0.15
28 0.15
29 0.37
3 -0.57
33 0.15
34 0.15
35 0.15
36 0.15
37 0.15
4 -0.57
5 0.05
6 -0.49
7 -0.05
9 0.06

> <PUBCHEM_EFFECTIVE_ROTOR_COUNT>
2.2

> <PUBCHEM_PHARMACOPHORE_FEATURES>
8
1 3 acceptor
1 4 acceptor
1 5 cation
1 6 donor
5 5 7 8 10 11 rings
5 6 9 12 13 16 rings
6 15 21 22 23 24 25 rings
6 8 10 14 17 19 20 rings

> <PUBCHEM_HEAVY_ATOM_COUNT>
25

> <PUBCHEM_ATOM_DEF_STEREO_COUNT>
0

> <PUBCHEM_ATOM_UDEF_STEREO_COUNT>
0

> <PUBCHEM_BOND_DEF_STEREO_COUNT>
0

> <PUBCHEM_BOND_UDEF_STEREO_COUNT>
0

> <PUBCHEM_ISOTOPIC_ATOM_COUNT>
0

> <PUBCHEM_COMPONENT_COUNT>
1

> <PUBCHEM_CACTVS_TAUTO_COUNT>
3

> <PUBCHEM_CONFORMER_ID>
0002B01E00000002

> <PUBCHEM_MMFF94_ENERGY>
59.5022

> <PUBCHEM_FEATURE_SELFOVERLAP>
40.689

> <PUBCHEM_SHAPE_FINGERPRINT>
10165383 225 17907062496583243177
11221954 11 17917703651842875808
11582403 64 16913647200053057120
11640471 11 18263626433726976033
11725454 13 17273102865710384536
12156800 1 14676908552021165592
12173636 292 18409736174850841309
12788726 201 17825962682338206811
13134695 92 17403169301412449843
13140716 1 18263363594687430443
13294875 104 18198346152427696930
133893 2 17971739000349949015
13583140 156 17771322448275723400
13878862 14 17396692091895359749
13965767 371 18041554728939146380
14178342 30 18335703857633989465
14713325 29 17320751361894597814
16752209 62 18190457362203582510
17492 54 16191373785124180997
17980427 23 17624660524270347819
18981168 100 18410866442396623443
19765921 60 18200859687585330473
20510252 161 18267868478388495139
20600515 1 17548990299958579299
20642791 239 17395622365649101118
20715895 44 17532904205090764087
21304303 282 17911197802944122143
22149856 69 18263094215631283897
22907989 373 18120365712246412949
23557571 272 18054235594062790198
23558518 356 18259988162868189331
238 59 17843694265799055201
350125 39 18336563628620082803
3797600 57 17098658761341539704
4340502 62 18335695002334532805
469060 322 18264779920952319619
474 4 18194668281663940137
495365 180 17901389996379989085
5252454 2 18124345772719800265
57527295 17 17630910243146871710
57527573 199 18129647605104806552
57527585 21 17415284102801305777
6442390 28 18269018465010062627
7808743 9 18263945348124101364
81228 2 18051432943166205323
84936 182 18127120875543564161
90316 7 17834951254056203562
9849439 229 18337671906403080601
9981440 41 18199161006096773947

> <PUBCHEM_SHAPE_MULTIPOLES>
496.53
7.04
4.1
2.19
0.25
2.05
1.17
-7.42
-0.27
-2.9
-1.26
1.5
-0.78
0.24

> <PUBCHEM_SHAPE_SELFOVERLAP>
1099.86

> <PUBCHEM_SHAPE_VOLUME>
270.6

> <PUBCHEM_COORDINATE_TYPE>
2
5
10

$$$$
